Circuit: *

.OP point found by inspection.

Date: Fri Feb 05 18:46:03 2016
Total elapsed time: 0.210 seconds.

tnom = 27
temp = 27
method = modified trap
totiter = 2192
traniter = 2192
tranpoints = 1097
accept = 1083
rejected = 14
matrix size = 7
fillins = 0
solver = Normal
Matrix Compiler1: 250 bytes object code size  0.2/0.1/[0.0]
Matrix Compiler2: 467 bytes object code size  0.1/0.1/[0.1]


